* BSD 3-Clause License
*
* Copyright 2024 Akshata Ashoka, Nahid Shazon, Meghana Mallikarjuna, Piyush Kumar, Da Eun Shim, Azad Naeemi, or Georgia Institute of Technology
*
* Redistribution and use in source and binary forms, with or without 
* modification, are permitted provided that the following conditions are met:
*
* 1. Redistributions of source code must retain the above copyright notice, 
* this list of conditions and the following disclaimer.
*
* 2. Redistributions in binary form must reproduce the above copyright notice, 
* this list of conditions and the following disclaimer in the documentation 
* and/or other materials provided with the distribution.
*
* 3. Neither the name of the copyright holder nor the names of its contributors 
* may be used to endorse or promote products derived from this software without 
* specific prior written permission.
*
* THIS SOFTWARE IS PROVIDED BY THE COPYRIGHT HOLDERS AND CONTRIBUTORS “AS IS” 
* AND ANY EXPRESS OR IMPLIED WARRANTIES, INCLUDING, BUT NOT LIMITED TO, 
* THE IMPLIED WARRANTIES OF MERCHANTABILITY AND FITNESS FOR A PARTICULAR PURPOSE 
* ARE DISCLAIMED. IN NO EVENT SHALL THE COPYRIGHT HOLDER OR CONTRIBUTORS BE LIABLE 
* FOR ANY DIRECT, INDIRECT, INCIDENTAL, SPECIAL, EXEMPLARY, OR CONSEQUENTIAL DAMAGES 
* (INCLUDING, BUT NOT LIMITED TO, PROCUREMENT OF SUBSTITUTE GOODS OR SERVICES; 
* LOSS OF USE, DATA, OR PROFITS; OR BUSINESS INTERRUPTION) HOWEVER CAUSED AND 
* ON ANY THEORY OF LIABILITY, WHETHER IN CONTRACT, STRICT LIABILITY, OR TORT 
* (INCLUDING NEGLIGENCE OR OTHERWISE) ARISING IN ANY WAY OUT OF THE USE OF THIS 
* SOFTWARE, EVEN IF ADVISED OF THE POSSIBILITY OF SUCH DAMAGE.


*.lib nfet_typ
.model nmos_lvt nmos
+L=1.5e-08
+DEVTYPE=1
+EASUB=4.0727
+NI0SUB=1.1055e+16
+BG0SUB=1.1242
+NC0SUB=2.9951e+25
+PHIG=4.27401
+RDSW=50
+RDSWMIN=50
+CDSCD=0.0086794
+VSAT=154513
+UA=0.133692
+PDIBL2=0.0282652
+PCLM=1e-10
+PCLMG=0
+level=72
+VERSION=111.2.1
+BULKMOD=1
+CAPMOD=1
+IGCMOD=0
+IGBMOD=0
+GIDLMOD=0
+COREMOD=0
+GEOMOD=5
+CGEOMOD=0
+IIMOD=0
+RDSMOD=0
+TNOM=25
+XL=0
+LINT=0
+LL=0
+LLC=0
+LLN=1
+DLC=0
+EOT=1e-09
*+TFIN=2.1e-08
*+HFIN=5e-09
+FPITCH=3e-08
+WGAA=2.1e-08
+TGAA=5e-09
+TSUS=1e-08
+FECH=1
+NF=1
+NFIN=1
+NGAA=3
+NBODY=2e+24
+NSD=2e+26
+NGATE=0
+LPHIG=0
+LRDSW=0
+ARDSW=0
+BRDSW=1e-08
+PRWG=0
+CIT=0
+CDSC=0.0839264
+LCDSC=0
+LCDSCD=0
+DVT0=0
+LDVT0=0
+DVT1=0.7
+LDVT1=0
+PHIN=0
+LPHIN=0
+ETA0=0
+LETA0=0
+DSUB=1.06
+LDSUB=0
+K1RSCE=0
+LK1RSCE=0
+LPE0=0
+LLPE0=0
+QMFACTOR=1
+qm0=0.0464194
+LVSAT=0
+AVSAT=0
+BVSAT=6e-08
+AVSAT1=0
+BVSAT1=6e-08
+KSATIV=1.00614
+LKSATIV=0
+DELTAVSAT=1
+MEXP=3.21594
+LMEXP=0
+AMEXP=0
+BMEXP=1
+PTWG=0
+LPTWG=0
+APTWG=0
+BPTWG=6e-08
+U0=0.0178152
+LU0=0
+ETAMOB=10
+UP=0
+LUP=0
+LPA=1
+LUA=0
+AUA=0
+BUA=6e-08
+EU=1.57252
+LEU=0
+UD=0.00255097
+LUD=0
+AUD=0
+BUD=5e-08
+UCS=5.76217
+LUCS=0
+PDIBL1=1e-09
+LPDIBL1=0
+LPDIBL2=0
+DROUT=1.06
+LDROUT=0
+PVAG=18.3408
+LPVAG=0
+LPCLM=0
+CFS=0
+DVTP1=1
+cgsl=1.01294e-10
+cgso=2.30504e-10
+cgdo=2.30504e-10
+cgdl=1.01294e-10
+ckappas=0.522953
+deltawcv=-1.08134e-08
+qmtcencv=0.672143
+ckappad=0.522953
*.ends


.model pmos_lvt pmos
+L=1.5e-08
+DEVTYPE=0
+EASUB=4.0727
+NI0SUB=1.1055e+16
+BG0SUB=1.1242
+NC0SUB=2.9951e+25
+PHIG=4.97732
+RDSW=50
+RDSWMIN=50
+CDSCD=0.086613
+VSAT=61521.6
+UA=3.2977
+PDIBL2=0.00339579
+PCLM=1e-10
+PCLMG=0
+level=72
+VERSION=111.2.1
+BULKMOD=1
+CAPMOD=1
+IGCMOD=0
+IGBMOD=0
+GIDLMOD=0
+COREMOD=0
+GEOMOD=5
+CGEOMOD=0
+IIMOD=0
+RDSMOD=0
+TNOM=25
+XL=0
+LINT=0
+LL=0
+LLC=0
+LLN=1
+DLC=0
+EOT=1e-09
*+TFIN=2.1e-08
*+HFIN=5e-09
+FPITCH=3e-08
+WGAA=2.1e-08
+TGAA=5e-09
+TSUS=1e-08
+FECH=1
+NF=1
+NFIN=1
+NGAA=3
+NBODY=2e+24
+NSD=2e+26
+NGATE=0
+LPHIG=0
+LRDSW=0
+ARDSW=0
+BRDSW=1e-08
+PRWG=0
+CIT=0
+CDSC=0.073514
+LCDSC=0
+LCDSCD=0
+DVT0=0
+LDVT0=0
+DVT1=0.7
+LDVT1=0
+PHIN=0
+LPHIN=0
+ETA0=0
+LETA0=0
+DSUB=1.06
+LDSUB=0
+K1RSCE=0
+LK1RSCE=0
+LPE0=0
+LLPE0=0
+QMFACTOR=1
+qm0=0.0945451
+LVSAT=0
+AVSAT=0
+BVSAT=6e-08
+AVSAT1=0
+BVSAT1=6e-08
+KSATIV=1.50701
+LKSATIV=0
+DELTAVSAT=1
+MEXP=2.17806
+LMEXP=0
+AMEXP=0
+BMEXP=1
+PTWG=0
+LPTWG=0
+APTWG=0
+BPTWG=6e-08
+U0=0.0122268
+LU0=0
+ETAMOB=1.81838
+UP=0
+LUP=0
+LPA=1
+LUA=0
+AUA=0
+BUA=6e-08
+EU=1.0975
+LEU=0
+UD=0.0226933
+LUD=0
+AUD=0
+BUD=5e-08
+UCS=1.85463
+LUCS=0
+PDIBL1=1e-09
+LPDIBL1=0
+LPDIBL2=0
+DROUT=1.06
+LDROUT=0
+PVAG=0
+LPVAG=0
+LPCLM=0
+CFS=0
+DVTP1=1
+cgsl=4.6711e-13
+cgso=3.78175e-10
+cgdo=3.78175e-10
+cgdl=4.6711e-13
+ckappas=0.584699
+deltawcv=-7.64315e-09
+qmtcencv=0.818608
+ckappad=0.584699
*.ends
